LTspice 26.0.1 for Windows
Circuit: D:\Projects\school-projects\lab3-ca\lab3asc\lab31.cir
Start Time: Tue Mar 31 23:25:13 2026
solver = Normal
Maximum thread count: 16
tnom = 27
temp = 27
method = trap
Direct Newton iteration succeeded in finding operating point.
Total elapsed time: 0.117 seconds.

Files loaded:
D:\Projects\school-projects\lab3-ca\lab3asc\lab31.cir

