LTspice 26.0.1 for Windows
Circuit: D:\Projects\school-projects\lab3-ca\lab3asc\lab32.cir
Start Time: Tue Mar 31 23:21:24 2026
solver = Normal
Maximum thread count: 16
tnom = 27
temp = 27
method = trap
Direct Newton iteration succeeded in finding operating point.
Total elapsed time: 0.022 seconds.

Files loaded:
D:\Projects\school-projects\lab3-ca\lab3asc\lab32.cir

